
Circuit: **.subckt first_test_inverter

 Copies=20231 Evals=20228 Placeholders=2076 Symbols=14978 Errors=590
